<?xml version="1.0"?>
<routes>
	<vType accel="1.0" decel="9.0" id="Car" lenghth="1.5" maxSpeed="20.0" sigma="0.0" minGap="0.0" impatience="100000000"/>
		<!-- sigma is the parameter of random behaviors, sigma=0 means deterministic -->
	<route id="route0" edges="1to3 3to6 6to8" priority="10"/>
	<route id="route1" edges="5to6 6to7" priority="10"/>
	<route id="route2" edges="8to6 6to3 3to1" priority="10"/>
	<route id="route3" edges="2to3 3to4" priority="10"/>
	<route id="route4" edges="7to6 6to5" priority="10"/>
	<route id="route5" edges="4to3 3to2" priority="10"/>
	<flow id="flow0" type="Car" route="route0" begin="0" period="8" number="1000"/>
	<flow id="flow1" type="Car" route="route1" begin="0" period="8" number="1000"/>
	<flow id="flow2" type="Car" route="route2" begin="0" period="8" number="1000"/>
	<flow id="flow3" type="Car" route="route3" begin="0" period="8" number="1000"/>
	<flow id="flow4" type="Car" route="route4" begin="0" period="8" number="1000"/> 
	<flow id="flow5" type="Car" route="route5" begin="0" period="8" number="1000"/>

</routes>