<?xml version="1.0"?>
<nodes>
	<node id="1" x="-650.0" y="0.0" />
	<node id="2" x="-250.0" y="+400.0" />
	<node id="3" x="-250.0" y="0.0" />
	<node id="4" x="-250.0" y="-400.0" />
	<node id="5" x="+250.0" y="+400.0" />
	<node id="6" x="+250.0" y="0.0" />
	<node id="7" x="+250.0" y="-400.0" />
	<node id="8" x="650.0" y="0.0" />
</nodes>